40

O	1.626743	2.39998	-0.979416	-0.259795
O	3.324162	-1.838001	0.614998	-0.251581
O	3.761456	0.896984	0.140563	-0.377802
N	-3.658944	-0.031614	1.306481	-0.346817
N	-4.492148	0.283798	-0.853751	-0.283981
N	-1.641999	-1.019456	1.639324	-0.415736
N	-5.68832	0.984977	1.009389	-0.425228
C	-1.202159	-1.525725	-1.205626	-1.122834
C	0.120825	-0.88330	-0.832988	0.839888
C	-2.396767	-0.806432	-0.63799	0.321118
C	1.136083	-1.648272	-0.263556	-0.496607
C	0.324492	0.474388	-1.042095	-0.500009
C	1.528858	1.086623	-0.691498	0.066776
C	2.349316	-1.054849	0.075602	-0.43454
C	2.558841	0.317344	-0.121534	0.430173
C	-2.568266	-0.60757	0.785705	0.264508
C	-3.39668	-0.328201	-1.408381	0.030561
C	-4.599837	0.403048	0.494944	0.444631
C	2.365678	3.268301	-0.121348	-0.272449
C	4.462138	-2.040647	-0.229158	-0.276748
C	4.184795	0.885355	1.504851	-0.21988
H	-1.308125	-1.567586	-2.294711	0.218482
H	-1.212871	-2.564129	-0.853319	0.245978
H	1.030098	-2.717668	-0.10657	0.212022
H	-0.443779	1.10328	-1.481121	0.197197
H	-3.397789	-0.405194	-2.488883	0.235644
H	-0.732619	-1.329266	1.319345	0.33665
H	-1.788295	-0.852082	2.624692	0.31652
H	3.426519	3.260414	-0.369366	0.191072
H	2.224382	2.984322	0.926508	0.128984
H	1.947647	4.261422	-0.285169	0.208067
H	4.958606	-1.093109	-0.454623	0.190642
H	4.153421	-2.529111	-1.159046	0.149307
H	5.133881	-2.695891	0.324158	0.195524
H	4.41398	-0.128452	1.840637	0.187897
H	3.407691	1.316059	2.146319	0.132548
H	5.079186	1.506541	1.546395	0.203135
H	-6.455164	1.31856	0.449551	0.295935
H	-5.748538	1.060119	2.013258	0.318023
H	-5.221143	0.635739	-1.458891	0.322726
