42

O	1.193293	-0.683792	-1.498355	-0.460789
N	-2.569133	1.159153	0.399973	0.331506
N	2.615074	0.039349	0.860209	0.381771
N	3.484617	-1.899709	0.568834	-0.170529
C	1.445833	1.561352	-0.745731	0.505488
C	0.594334	2.837314	-0.775032	-0.911488
C	-0.643927	2.777715	0.133954	-0.470498
C	-1.308681	1.446897	-0.000097	0.031261
C	-0.725288	0.309089	-0.548951	0.01501
C	0.633044	0.287104	-1.008683	0.147349
C	2.177565	1.416385	0.605201	-0.959846
C	-1.706554	-0.745616	-0.488845	0.571516
C	-2.845294	-0.176942	0.111596	0.353504
C	-3.530796	2.060679	1.003733	-0.540164
C	-1.729794	-2.088248	-0.87659	-0.413462
C	-4.01414	-0.897996	0.338969	-0.355991
C	3.52056	-0.633341	0.147078	0.319165
C	1.96866	-0.831992	1.717519	-0.223931
C	-2.888361	-2.815175	-0.650623	-0.437959
C	-4.015052	-2.228686	-0.051629	-0.326846
C	2.520677	-2.055641	1.540095	-0.027381
C	4.360458	-0.113226	-0.956902	-0.779329
H	2.193687	1.615138	-1.542162	0.240886
H	0.261349	2.987233	-1.806144	0.219479
H	1.204348	3.707182	-0.510471	0.21639
H	-1.327379	3.584963	-0.145759	0.203182
H	-0.37804	2.957859	1.184589	0.215243
H	1.516394	1.674564	1.435303	0.220978
H	3.046334	2.077841	0.654903	0.261911
H	-4.368369	2.234903	0.322983	0.222306
H	-3.908137	1.628785	1.933769	0.18347
H	-3.050939	3.011803	1.231147	0.155833
H	-0.864789	-2.534256	-1.352556	0.227824
H	-4.888202	-0.446246	0.794137	0.176663
H	1.177892	-0.502947	2.370292	0.227056
H	-2.932929	-3.856473	-0.948712	0.18528
H	-4.905973	-2.82599	0.104785	0.188707
H	2.323051	-3.001042	2.014268	0.25222
H	5.280215	-0.694062	-1.040806	0.225917
H	3.79456	-0.192701	-1.890364	0.255281
H	4.626037	0.931035	-0.783264	0.195654
H	4.06116	-2.636832	0.187412	0.347362
