45

O	0.034747	-2.35252	-1.735389	-0.26808
N	0.900922	0.178946	0.78523	0.008896
N	-4.069368	-0.804786	0.46477	-0.056562
C	3.278939	-0.798031	0.613259	0.107618
C	0.878061	-1.111804	0.091967	-0.581476
C	2.305055	-1.54199	-0.318252	-0.434756
C	3.297374	0.697926	0.235784	-0.190533
C	2.753562	-0.892615	2.054557	-0.506472
C	1.806753	1.110116	0.090067	-0.373746
C	1.443915	-0.062226	2.136425	-0.132078
C	-0.107868	-1.105057	-1.096263	-0.324304
C	4.08054	1.010897	-1.002569	0.155844
C	-1.523116	-0.933712	-0.574345	0.232574
C	-2.129332	0.335041	-0.35617	0.249047
C	5.088309	1.876801	-1.057013	-0.57880
C	-2.234348	-2.085163	-0.265304	0.245872
C	-3.442275	0.37893	0.177316	-0.025902
C	-1.508992	1.576887	-0.653002	-0.074553
C	-3.511464	-1.995162	0.261987	-0.244246
C	-4.109806	1.594649	0.413365	-0.253202
C	-2.164541	2.757944	-0.430712	-0.263768
C	-3.470738	2.768267	0.109349	-0.246691
H	4.282273	-1.222229	0.53328	0.23683
H	0.47898	-1.846048	0.804289	0.162558
H	2.500836	-1.295096	-1.367872	0.153303
H	2.414653	-2.624774	-0.22698	0.237923
H	3.747846	1.253315	1.067396	0.181647
H	3.496273	-0.509185	2.759209	0.188978
H	2.569113	-1.939869	2.31760	0.159971
H	1.639002	2.119429	0.479114	0.21920
H	1.548363	1.129761	-0.975886	0.130825
H	0.682655	-0.57260	2.733635	0.180045
H	1.618901	0.913819	2.597825	0.180109
H	0.147779	-0.289761	-1.782407	0.213405
H	3.783266	0.488415	-1.912848	0.162411
H	-0.253609	-2.293989	-2.65139	0.329356
H	5.62184	2.070326	-1.980723	0.161671
H	5.415647	2.418609	-0.17375	0.131748
H	-1.792327	-3.057519	-0.438263	0.272765
H	-0.503864	1.588155	-1.04861	0.049177
H	-4.104606	-2.861668	0.526806	0.240697
H	-5.113707	1.591197	0.825159	0.191269
H	-1.67803	3.697352	-0.665126	0.225547
H	-3.97226	3.713606	0.281846	0.223251
H	-5.007773	-0.76039	0.848138	0.322635
