47

S	3.822104	-1.388294	-0.355707	0.934543
O	-0.306489	-0.208785	2.803770	-0.278432
O	-0.170092	2.944998	0.237608	-0.353832
O	3.272255	-2.508119	0.354745	-0.399084
O	4.169159	-1.421134	-1.747568	-0.399872
N	-3.589872	-1.065894	-0.295298	0.104018
N	-1.643294	1.363968	1.808241	-0.350097
N	5.141306	-0.842475	0.467208	-0.408314
C	-2.491661	-0.151478	-0.002125	-0.268424
C	-2.463002	0.875270	-1.158328	-0.188732
C	-3.718922	0.546478	-1.981801	-0.652782
C	-3.901693	-0.941078	-1.719814	-0.179134
C	-2.781508	0.467784	1.361215	-0.320595
C	-3.347706	-2.432668	0.159223	-0.126503
C	-4.574871	-3.317317	0.004357	-0.586429
C	-0.339827	0.586301	1.922619	0.124448
C	0.687890	0.838858	0.905267	0.356624
C	1.656934	-0.167064	0.786860	-0.289866
C	0.747184	1.965000	0.054441	0.240226
C	2.641516	-0.068441	-0.172395	-0.293362
C	1.745140	2.042189	-0.916517	-0.269008
C	2.680589	1.024419	-1.033168	-0.311009
C	-0.169290	4.066710	-0.652402	-0.334352
H	-1.530647	-0.693945	0.047506	0.088450
H	-2.463331	1.915625	-0.811934	0.091501
H	-1.558575	0.733268	-1.757543	0.186508
H	-3.602173	0.783923	-3.039620	0.203134
H	-4.584450	1.093852	-1.598488	0.176789
H	-3.204381	-1.536839	-2.336212	0.167903
H	-4.917576	-1.284804	-1.921800	0.179112
H	-2.897314	-0.291985	2.135895	0.260555
H	-3.678520	1.089380	1.318254	0.250490
H	-3.061762	-2.394018	1.216890	0.138777
H	-2.493222	-2.871175	-0.388254	0.161528
H	-1.517052	2.157472	1.163903	0.380166
H	-4.389525	-4.294918	0.454198	0.178558
H	-4.821896	-3.480171	-1.047549	0.164510
H	-5.438183	-2.863546	0.497963	0.175251
H	1.606851	-1.038185	1.432281	0.322082
H	1.800720	2.889801	-1.585081	0.226430
H	3.441423	1.071139	-1.805659	0.268829
H	5.950975	-0.802475	-0.143969	0.314235
H	5.309012	-1.399464	1.299075	0.309317
H	-0.994492	4.698922	-0.330180	0.213178
H	0.770451	4.616255	-0.565442	0.196268
H	-0.331909	3.734600	-1.681310	0.191482
H	-1.848377	1.725352	2.744305	0.404914
