21
Choline
N -0.878 0.022 0 -0.02106
C -1.834 1.194 -0.008 -0.43907
C 0.539 0.582 -0.003 -0.01725
C -1.135 -0.803 1.239 -0.34004
C -1.135 -0.818 -1.229 -0.34
H -1.658 1.787 -0.905 0.207793
H -2.856 0.814 -0.004 0.227694
H -1.657 1.799 0.881 0.207764
H 0.627 1.212 -0.891 0.142737
H 0.629 1.218 0.88 0.142989
H -0.504 -1.689 1.225 0.17859
H -0.913 -0.197 2.118 0.198319
H -2.184 -1.101 1.248 0.195571
H -0.505 -1.706 -1.202 0.178101
H -2.184 -1.114 -1.236 0.195693
H -0.909 -0.224 -2.115 0.198428
C 1.681 -0.44 0 0.199373
O 2.83 0.385 0 -0.66343
H 1.645 -1.079 0.893 0.042123
H 1.647 -1.081 -0.891 0.042079
H 3.633 -0.154 0 0.463592
