58
Dexamethasone
C 2.833 -0.486 0.615 -0.01466
C 3.517 0.851 0.467 0.36331
C 3.519 -1.595 -0.113 0.014256
C 4.663 0.987 -0.269 -0.5536
C 4.655 -1.437 -0.832 -0.33475
C 5.231 -0.133 -0.926 0.684739
C 1.353 -0.282 0.034 0.242617
C 0.597 0.845 0.779 0.154302
C 2.87 2.02 1.134 -0.1723
C 1.388 2.164 0.706 0.025232
C 0.554 -1.596 -0.198 0.208876
C -0.902 -1.356 -0.649 -0.2432
C -0.8 1.005 0.157 -0.02403
C -1.647 -0.296 0.177 0.35896
C -1.745 2.088 0.709 -0.23397
C -3.175 1.635 0.265 0.373649
C -2.943 0.285 -0.524 0.072017
O 6.325 -0.043 -1.654 -0.52006
C 2.876 -0.886 2.139 -0.45008
O 0.662 -2.385 0.992 -0.68683
C -1.923 -0.798 1.612 -0.60871
H 0.499 0.543 1.828 -0.01511
C -4.219 -0.582 -0.567 0.355554
C -4.95 -1.12 0.658 0.213344
O -6.281 -1.452 0.365 -0.64166
O -4.706 -0.825 -1.665 -0.46024
O -2.6 0.574 -1.869 -0.63234
C -3.944 2.687 -0.539 -0.43042
H -0.637 1.238 -0.9 0.068073
F 1.586 0.188 -1.291 -0.29005
H 1.067 -2.115 -1.02 0.048286
H -3.76 1.408 1.161 -0.05903
H 3.081 -2.583 -0.007 0.161942
H 5.144 1.958 -0.365 0.205378
H 5.151 -2.259 -1.336 0.219647
H 2.915 1.869 2.221 0.072848
H 3.422 2.938 0.918 0.096115
H 1.352 2.548 -0.319 0.025501
H 0.915 2.912 1.347 0.030923
H -0.884 -1.033 -1.694 0.07631
H -1.415 -2.328 -0.631 0.072139
H -1.684 2.161 1.802 0.047177
H -1.508 3.077 0.306 0.06026
H 3.914 -0.888 2.482 0.143616
H 2.314 -0.177 2.745 0.162277
H 2.443 -1.874 2.275 0.193443
H 0.044 -3.126 0.933 0.447025
H -2.529 -0.104 2.198 0.122836
H -2.441 -1.761 1.599 0.116814
H -0.994 -0.965 2.158 0.175452
H -4.392 -2.006 1.005 0.038241
H -4.944 -0.398 1.48 0.077056
H -3.312 0.208 -2.427 0.418389
H -4.097 3.583 0.071 0.10487
H -3.396 2.969 -1.441 0.120284
H -4.931 2.324 -0.843 0.110494
H -6.341 -1.622 -0.59 0.416447
H 6.686 0.86 -1.693 0.472332
