21
N-Ethylaniline
C 0.601 1.113 -0.531 -0.235378
C 1.915 1.267 -0.082 -0.036845
C 0.028 -0.155 -0.479 0.190319
C 2.625 0.166 0.404 -0.113668
C 0.716 -1.269 -0.003 -0.192485
C 2.028 -1.098 0.442 -0.065015
N -1.373 -0.332 -0.948 -0.480154
C -2.441 -0.504 0.143 0.194477
C -2.604 0.753 0.978 -0.35008
H 0.049 1.968 -0.913 0.169213
H 2.381 2.246 -0.117 0.151016
H 3.646 0.291 0.749 0.158286
H 0.254 -2.253 0.018 0.170916
H 2.583 -1.954 0.811 0.154201
H -1.414 -1.146 -1.57 0.359988
H -3.36 -0.767 -0.387 0.066483
H -2.119 -1.36 0.739 0.074785
H -1.686 1.013 1.512 0.138068
H -2.922 1.608 0.372 0.118284
H -3.384 0.572 1.722 0.146712
H -1.63 0.474 -1.527 0.380876
