26
Pyrene
C 2.846 -1.207 0 0.008684
C 3.542 0 0 -0.196899
C 2.846 1.207 0 -0.042798
C 1.422 1.235 0 0.16272
C 0.709 0 0 -0.058518
C 1.422 -1.235 0 0.102595
C 0.693 2.452 0 -0.245599
C -0.693 2.452 0 0.021264
C -1.422 1.235 0 -0.126767
C -0.709 0 0 0.251893
C -1.422 -1.235 0 -0.050982
C -0.693 -2.452 0 -0.038252
C 0.693 -2.452 0 -0.199419
C -2.846 1.207 0 0.071207
C -3.542 0 0 -0.211645
C -2.846 -1.207 0 0.017739
H 3.39 -2.148 0 0.130506
H 4.627 0 0 0.178573
H 3.39 2.148 0 0.148835
H 1.233 3.394 0 0.182176
H -1.233 3.394 0 0.138058
H -1.233 -3.394 0 0.148071
H 1.233 -3.394 0 0.177667
H -3.39 2.148 0 0.118522
H -4.627 0 0 0.17688
H -3.39 -2.148 0 0.135493
